Dados_Sistema_IEEE_118.m
%% Dados de entrada do sistema IEEE 118 barras 

%% Dados gerais do sistema

% base de tensão V = 1.0 kV; S = 100MVA

Sbase = 100; % MVA
Vbase = 1.0; % kV

K = (Vbase^2)/Sbase;

nbus = 118;
%%
% NB  T  VT    Angle      PG     QG      PLOAD    QLOAD     QBAR  
 busdata = [
    1  2  0.955  10.67     0.0     0.0    51.0     27.0  0 0    0.0 
    2  3  0.971  11.22     0.0     0.0    20.0      9.0  0 0    0.0 
    3  3  0.968  11.56     0.0     0.0    39.0     10.0  0 0    0.0 
    4  2  0.998  15.28    -9.0     0.0    30.0     12.0  0 0    0.0 
    5  3  1.002  15.73     0.0     0.0     0.0      0.0  0 0   -40/100.
    6  2  0.990  13.00     0.0     0.0    52.0     22.0  0 0    0.0 
    7  3  0.989  12.56     0.0     0.0    19.0      2.0  0 0    0.0 
    8  2  1.015  20.77   -28.0     0.0    0.0      0.0   0 0  0.0 
    9  3  1.043  28.02     0.0     0.0    0.0      0.0   0 0   0.0 
   10  2  1.050  35.61   450.0     0.0    0.0      0.0   0 0   0.0 
   11  3  0.985  12.72     0.0     0.0    70.0     23.0  0 0    0.0 
   12  2  0.990  12.20    85.0     0.0   47.0     10.0   0 0   0.0 
   13  3  0.968  11.35     0.0     0.0   34.0     16.0   0 0   0.0 
   14  3  0.984  11.50     0.0     0.0   14.0      1.0   0 0   0.0 
   15  2  0.970  11.23     0.0     0.0   90.0     30.0   0 0   0.0 
   16  3  0.984  11.91     0.0     0.0   25.0     10.0   0 0   0.0 
   17  3  0.995  13.74     0.0     0.0   11.0      3.0   0 0   0.0 
   18  2  0.973  11.53     0.0     0.0   60.0     34.0   0 0   0.0 
   19  2  0.963  11.05     0.0     0.0   45.0     25.0   0 0   0.0 
   20  3  0.958  11.93     0.0     0.0   18.0      3.0   0 0   0.0 
   21  3  0.959  13.52     0.0     0.0   14.0      8.0   0 0   0.0 
   22  3  0.970  16.08     0.0     0.0   10.0      5.0   0 0   0.0 
   23  3  1.000  21.00     0.0     0.0   7.0      3.0    0 0   0.0 
   24  2  0.992  20.89   -13.0     0.0   0.0      0.0    0 0   0.0 
   25  2  1.050  27.93   220.0     0.0   0.0      0.0    0 0   0.0 
   26  2  1.015  29.71   314.0     0.0   0.0      0.0    0 0   0.0 
   27  2  0.968  15.35    -9.0     0.0   62.0     13.0   0 0   0.0 
   28  3  0.962  13.62     0.0     0.0   17.0      7.0   0 0   0.0 
   29  3  0.963  12.63     0.0     0.0   24.0      4.0   0 0   0.0 
   30  3  0.968  18.79     0.0     0.0   0.0      0.0    0 0   0.0 
   31  2  0.967  12.75     7.0     0.0   43.0     27.0   0 0   0.0 
   32  2  0.964  14.80     0.0     0.0   59.0     23.0   0 0   0.0 
   33  3  0.972  10.63     0.0     0.0   23.0      9.0   0 0   0.0 
   34  2  0.986  11.30     0.0     0.0   59.0     26.0   0 0   14/100.
   35  3  0.981  10.87     0.0     0.0   33.0      9.0   0 0   0.0 
   36  2  0.980  10.87     0.0     0.0   31.0     17.0   0 0   0.0 
   37  3  0.992  11.77     0.0     0.0   0.0      0.0    0 0   -25/100.
   38  3  0.962  16.91     0.0     0.0   0.0      0.0    0 0  0.0 
   39  3  0.970   8.41     0.0     0.0   27.0     11.0   0 0   0.0 
   40  2  0.970   7.35   -46.0     0.0   20.0     23.0   0 0   0.0 
   41  3  0.967   6.92     0.0     0.0   37.0     10.0   0 0   0.0 
   42  2  0.985   8.53   -59.0     0.0   37.0     23.0   0 0   0.0 
   43  3  0.978  11.28     0.0     0.0   18.0      7.0   0 0   0.0 
   44  3  0.985  13.82     0.0     0.0   16.0      8.0   0 0   10/100.
   45  3  0.987  15.67     0.0     0.0   53.0     22.0   0 0   10/100.
   46  2  1.005  18.49    19.0     0.0   28.0     10.0   0 0   10/100.
   47  3  1.017  20.73     0.0     0.0   34.0      0.0   0 0   0.0 
   48  3  1.021  19.93     0.0     0.0   20.0     11.0   0 0   15/100.
   49  2  1.025  20.94   204.0     0.0   87.0     30.0   0 0   0.0 
   50  3  1.001  18.90     0.0     0.0   17.0      4.0   0 0   0.0 
   51  3  0.967  16.28     0.0     0.0   17.0      8.0   0 0   0.0 
   52  3  0.957  15.32     0.0     0.0   18.0      5.0   0 0   0.0 
   53  3  0.946  14.35     0.0     0.0   23.0     11.0   0 0   0.0 
   54  2  0.955  15.26    48.0     0.0   113.0     32.0  0 0   0.0 
   55  2  0.952  14.97     0.0     0.0   63.0     22.0   0 0   0.0 
   56  2  0.954  15.16     0.0     0.0   84.0     18.0   0 0   0.0 
   57  3  0.971  16.36     0.0     0.0   12.0      3.0   0 0   0.0 
   58  3  0.959  15.51     0.0     0.0   12.0      3.0   0 0   0.0 
   59  2  0.985  19.37   155.0     0.0   277.0    113.0  0 0   0.0 
   60  3  0.993  23.15     0.0     0.0   78.0      3.0   0 0   0.0 
   61  2  0.995  24.04   160.0     0.0   0.0      0.0    0 0   0.0 
   62  2  0.998  23.43     0.0     0.0   77.0     14.0   0 0   0.0 
   63  3  0.969  22.75     0.0     0.0   0.0      0.0    0 0   0.0 
   64  3  0.984  24.52     0.0     0.0   0.0      0.0    0 0   0.0 
   65  2  1.005  27.65   391.0     0.0   0.0      0.0    0 0   0.0 
   66  2  1.050  27.48   392.0     0.0   39.0     18.0   0 0   0.0 
   67  3  1.020  24.84     0.0     0.0   28.0      7.0   0 0   0.0 
   68  3  1.003  27.55     0.0     0.0   0.0      0.0    0 0   0.0 
   69  1  1.035  30.00   516.4     0.0   0.0      0.0    0 0   0.0 
   70  2  0.984  22.58     0.0     0.0   66.0     20.0   0 0   0.0 
   71  3  0.987  22.15     0.0     0.0   0.0      0.0    0 0   0.0 
   72  2  0.980  20.98   -12.0     0.0   0.0      0.0    0 0   0.0 
   73  2  0.991  21.94    -6.0     0.0   0.0      0.0    0 0   0.0 
   74  2  0.958  21.64     0.0     0.0   68.0     27.0   0 0   12/100.
   75  3  0.967  22.91     0.0     0.0   47.0     11.0   0 0   0.0 
   76  2  0.943  21.77     0.0     0.0   68.0     36.0   0 0   0.0 
   77  2  1.006  26.72     0.0     0.0   61.0     28.0   0 0   0.0 
   78  3  1.003  26.42     0.0     0.0   71.0     26.0   0 0   0.0 
   79  3  1.009  26.72     0.0     0.0   39.0     32.0   0 0   20/100.
   80  2  1.040  28.96   477.0     0.0   130.0     26.0  0 0   0.0 
   81  3  0.997  28.10     0.0     0.0   0.0      0.0    0 0   0.0 
   82  3  0.989  27.24     0.0     0.0   54.0     27.0   0 0   20/100.
   83  3  0.985  28.42     0.0     0.0   20.0     10.0   0 0   10/100.
   84  3  0.980  30.95     0.0     0.0   11.0      7.0   0 0   0.0 
   85  2  0.985  32.51     0.0     0.0   24.0     15.0   0 0   0.0 
   86  3  0.987  31.14     0.0     0.0   21.0     10.0   0 0   0.0 
   87  2  1.015  31.40     4.0     0.0   0.0      0.0    0 0   0.0 
   88  3  0.987  35.64     0.0     0.0   48.0     10.0   0 0   0.0 
   89  2  1.005  39.69   607.0     0.0    0.0      0.0   0 0   0.0 
   90  2  0.985  33.29   -85.0     0.0   78.0     42.0   0 0   0.0 
   91  2  0.980  33.31   -10.0     0.0   0.0      0.0    0 0   0.0 
   92  2  0.993  33.80     0.0     0.0   65.0     10.0   0 0   0.0 
   93  3  0.987  30.79     0.0     0.0   12.0      7.0   0 0   0.0 
   94  3  0.991  28.64     0.0     0.0   30.0     16.0   0 0   0.0 
   95  3  0.981  27.67     0.0     0.0   42.0     31.0   0 0   0.0 
   96  3  0.993  27.51     0.0     0.0   38.0     15.0   0 0   0.0 
   97  3  1.011  27.88     0.0     0.0   15.0      9.0   0 0   0.0 
   98  3  1.024  27.40     0.0     0.0   34.0      8.0   0 0   0.0 
   99  2  1.010  27.04   -42.0     0.0   0.0      0.0    0 0   0.0 
  100  2  1.017  28.03   252.0     0.0   37.0     18.0   0 0   0.0 
  101  3  0.993  29.61     0.0     0.0   22.0     15.0   0 0   0.0 
  102  3  0.991  32.30     0.0     0.0   5.0      3.0    0 0   0.0 
  103  2  1.001  24.44    40.0     0.0   23.0     16.0   0 0   0.0 
  104  2  0.971  21.69     0.0     0.0   38.0     25.0   0 0   0.0 
  105  2  0.965  20.57     0.0     0.0   31.0     26.0   0 0   20/100.
  106  3  0.962  20.32     0.0     0.0   43.0     16.0   0 0   0.0 
  107  2  0.952  17.53   -22.0     0.0   28.0     12.0   0 0   6.0/100
  108  3  0.967  19.38     0.0     0.0   2.0      1.0    0 0   0.0 
  109  3  0.967  18.93     0.0     0.0   8.0      3.0    0 0   0.0 
  110  2  0.973  18.09     0.0     0.0   39.0     30.0   0 0   6.0/100
  111  2  0.980  19.74    36.0     0.0   0.0      0.0    0 0   0.0 
  112  2  0.975  14.99   -43.0     0.0   25.0     13.0   0 0   0.0 
  113  2  0.993  13.74    -6.0     0.0   0.0      0.0    0 0   0.0 
  114  3  0.960  14.46     0.0     0.0   8.0      3.0    0 0   0.0 
  115  3  0.960  14.46     0.0     0.0   22.0      7.0   0 0   0.0 
  116  2  1.005  27.12  -184.0     0.0   0.0      0.0    0 0   0.0 
  117  3  0.974  10.67     0.0     0.0   20.0      8.0   0 0   0.0 
  118  1  0.949  21.92     0.0     0.0   33.0     15.0   0 0   0.0 
                                                                              ];
% Line Data
% From        T0    r             x          Bsh     
 linedata = [
    1         2      3.030/100      9.990/100       2.540/200        1.0     0.0      0.0     0.0     0.0     0.0
    1         3      1.290/100     4.240/100       1.082/200        1.0     0.0      0.0     0.0     0.0     0.0
    4         5      0.176/100      0.798/100       0.210/200        1.0     0.0      0.0     0.0     0.0     0.0
    3         5      2.410/100     10.800/100       2.840/200        1.0     0.0      0.0     0.0     0.0     0.0
    5         6      1.190/100      5.400/100       1.426/200        1.0     0.0      0.0     0.0     0.0     0.0
    6         7      0.459/100      2.080/100       0.550/200        1.0     0.0      0.0     0.0     0.0     0.0
    8         9      0.244/100      3.050/100      116.20/200        1.0     0.0      0.0     0.0     0.0     0.0
    8         5      0.000/100      2.670/100         0.0/200      1/0.985     0.0      0.0     0.0     0.0     0.0
    9        10      0.258/100      3.220/100      123.00/200        1.0     0.0      0.0     0.0     0.0     0.0
    4        11      2.090/100      6.880/100       1.748/200        1.0     0.0      0.0     0.0     0.0     0.0
    5        11      2.030/100      6.820/100       1.738/200        1.0     0.0      0.0     0.0     0.0     0.0
   11        12      0.595/100      1.960/100       0.502/200        1.0     0.0      0.0     0.0     0.0     0.0
    2        12      1.870/100      6.160/100       1.572/200        1.0     0.0      0.0     0.0     0.0     0.0
    3        12      4.840/100     16.000/100       4.060/200        1.0     0.0      0.0     0.0     0.0     0.0
    7        12      0.862/100      3.400/100       0.874/200        1.0     0.0      0.0     0.0     0.0     0.0
   11        13      2.225/100      7.310/100       1.876/200        1.0     0.0      0.0     0.0     0.0     0.0
   12        14      2.150/100      7.070/100       1.816/200        1.0     0.0      0.0     0.0     0.0     0.0
   13        15      7.440/100     24.440/100       6.268/200        1.0     0.0      0.0     0.0     0.0     0.0
   14        15      5.950/100     19.500/100       5.020/200        1.0     0.0      0.0     0.0     0.0     0.0
   12        16      2.120/100      8.340/100       2.140/200        1.0     0.0      0.0     0.0     0.0     0.0
   15        17      1.320/100      4.370/100       4.440/200        1.0     0.0      0.0     0.0     0.0     0.0
   16        17      4.540/100     18.010/100       4.660/200        1.0     0.0      0.0     0.0     0.0     0.0
   17        18      1.230/100      5.050/100       1.298/200        1.0     0.0      0.0     0.0     0.0     0.0
   18        19      1.119/100      4.930/100       1.142/200        1.0     0.0      0.0     0.0     0.0     0.0
   19        20      2.520/100     11.700/100       2.980/200        1.0     0.0      0.0     0.0     0.0     0.0
   15        19      1.200/100      3.940/100       1.010/200        1.0     0.0      0.0     0.0     0.0     0.0
   20        21      1.830/100      8.490/100       2.160/200        1.0     0.0      0.0     0.0     0.0     0.0
   21        22      2.090/100      9.700/100       2.460/200        1.0     0.0      0.0     0.0     0.0     0.0
   22        23      3.420/100     15.900/100       4.040/200        1.0     0.0      0.0     0.0     0.0     0.0
   23        24      1.350/100      4.920/100       4.980/200        1.0     0.0      0.0     0.0     0.0     0.0
   23        25      1.560/100      8.000/100       8.640/200        1.0     0.0      0.0     0.0     0.0     0.0
   26        25      0.000/100      3.820/100         0.0/200      1/0.960     0.0      0.0     0.0     0.0     0.0
   25        27      3.180/100     16.300/100      17.640/200        1.0     0.0      0.0     0.0     0.0     0.0
   27        28      1.913/100      8.550/100       2.160/200        1.0     0.0      0.0     0.0     0.0     0.0
   28        29      2.370/100      9.430/100       2.380/200       1.0     0.0      0.0     0.0     0.0     0.0
   30        17      0.000/100      3.880/100         0.0/200      1/0.960     0.0      0.0     0.0     0.0     0.0
    8        30      0.431/100      5.040/100      51.400/200        1.0     0.0      0.0     0.0     0.0     0.0
   26        30      0.799/100      8.600/100      90.800/200        1.0     0.0      0.0     0.0     0.0     0.0
   17        31      4.740/100     15.630/100       3.990/200        1.0     0.0      0.0     0.0     0.0     0.0
   29        31      1.080/100      3.310/100       0.830/200        1.0     0.0      0.0     0.0     0.0     0.0
   23        32      3.170/100     11.530/100      11.730/200        1.0     0.0      0.0     0.0     0.0     0.0
   31        32      2.980/100      9.850/100       2.510/200        1.0     0.0      0.0     0.0     0.0     0.0
   27        32      2.290/100      7.550/100       1.926/200        1.0     0.0      0.0     0.0     0.0     0.0
   15        33      3.800/100     12.440/100       3.194/200        1.0     0.0      0.0     0.0     0.0     0.0
   19        34      7.520/100     24.700/100       6.320/200        1.0     0.0      0.0     0.0     0.0     0.0
   35        36      0.224/100      1.020/100       0.268/200        1.0     0.0      0.0     0.0     0.0     0.0
   35        37      1.100/100      4.970/100       1.318/200        1.0     0.0      0.0     0.0     0.0     0.0
   33        37      4.150/100     14.200/100       3.660/200        1.0     0.0      0.0     0.0     0.0     0.0
   34        36      0.871/100      2.680/100       0.568/200        1.0     0.0      0.0     0.0     0.0     0.0
   34        37      0.256/100      0.940/100       0.984/200        1.0     0.0      0.0     0.0     0.0     0.0
   38        37      0.000/100      3.750/100         0.0/200      1/0.935     0.0      0.0     0.0     0.0     0.0
   37        39      3.210/100     10.600/100       2.700/200        1.0     0.0      0.0     0.0     0.0     0.0
   37        40      5.930/100     16.800/100       4.200/200        1.0     0.0      0.0     0.0     0.0     0.0
   30        38      0.464/100      5.400/100      42.200/200        1.0     0.0      0.0     0.0     0.0     0.0
   39        40      1.840/100      6.050/100       1.552/200        1.0     0.0      0.0     0.0     0.0     0.0
   40        41      1.450/100      4.870/100       1.222/200        1.0     0.0      0.0     0.0     0.0     0.0
   40        42      5.550/100     18.300/100       4.660/200        1.0     0.0      0.0     0.0     0.0     0.0
   41        42      4.100/100     13.500/100       3.440/200        1.0     0.0      0.0     0.0     0.0     0.0
   43        44      6.080/100     24.540/100       6.068/200        1.0     0.0      0.0     0.0     0.0     0.0
   34        43      4.130/100     16.810/100       4.226/200        1.0     0.0      0.0     0.0     0.0     0.0
   44        45      2.240/100      9.010/100       2.240/200        1.0     0.0      0.0     0.0     0.0     0.0
   45        46      4.000/100     13.560/100       3.320/200        1.0     0.0      0.0     0.0     0.0     0.0
   46        47      3.800/100     12.700/100       3.160/200        1.0     0.0      0.0     0.0     0.0     0.0
   46        48      6.010/100     18.900/100       4.720/200        1.0     0.0      0.0     0.0     0.0     0.0
   47        49      1.910/100      6.250/100       1.604/200        1.0     0.0      0.0     0.0     0.0     0.0
   42        49      7.150/100     32.300/100       8.600/200        1.0     0.0      0.0     0.0     0.0     0.0
   42        49      7.150/100     32.300/100       8.600/200        1.0     0.0      0.0     0.0     0.0     0.0
   45        49      6.840/100     18.600/100       4.440/200        1.0     0.0      0.0     0.0     0.0     0.0
   48        49      1.790/100      5.050/100       1.258/200        1.0     0.0      0.0     0.0     0.0     0.0
   49        50      2.670/100      7.520/100       1.874/200        1.0     0.0      0.0     0.0     0.0     0.0
   49        51      4.860/100     13.700/100       3.420/200        1.0     0.0      0.0     0.0     0.0     0.0
   51        52      2.030/100      5.880/100       1.396/200        1.0     0.0      0.0     0.0     0.0     0.0
   52        53      4.050/100     16.350/100       4.058/200        1.0     0.0      0.0     0.0     0.0     0.0
   53        54      2.630/100     12.200/100       3.100/200        1.0     0.0      0.0     0.0     0.0     0.0
   49        54      7.300/100     28.900/100       7.380/200        1.0     0.0      0.0     0.0     0.0     0.0
   49        54      8.690/100     29.100/100       7.300/200        1.0     0.0      0.0     0.0     0.0     0.0
   54        55      1.690/100      7.070/100       2.020/200        1.0     0.0      0.0     0.0     0.0     0.0
   54        56      0.275/100      0.955/100       0.732/200        1.0     0.0      0.0     0.0     0.0     0.0
   55        56      0.488/100      1.510/100       0.374/200        1.0     0.0      0.0     0.0     0.0     0.0
   56        57      3.430/100      9.660/100       2.420/200        1.0     0.0      0.0     0.0     0.0     0.0
   50        57      4.740/100     13.400/100       3.320/200        1.0     0.0      0.0     0.0     0.0     0.0
   56        58      3.430/100      9.660/100       2.420/200        1.0     0.0      0.0     0.0     0.0     0.0
   51        58      2.550/100     7.190/100        1.788/200        1.0     0.0      0.0     0.0     0.0     0.0
   54        59      5.030/100     22.930/100       5.980/200        1.0     0.0      0.0     0.0     0.0     0.0
   56        59      8.250/100     25.100/100       5.690/200        1.0     0.0      0.0     0.0     0.0     0.0
   56        59      8.030/100     23.900/100       5.360/200        1.0     0.0      0.0     0.0     0.0     0.0
   55        59      4.739/100     21.580/100       5.646/200        1.0     0.0      0.0     0.0     0.0     0.0
   59        60      3.170/100     14.500/100       3.760/200        1.0     0.0      0.0     0.0     0.0     0.0
   59        61      3.280/100     15.000/100       3.880/200        1.0     0.0      0.0     0.0     0.0     0.0
   60        61      0.264/100      1.350/100       1.456/200        1.0     0.0      0.0     0.0     0.0     0.0
   60        62      1.230/100      5.610/100       1.468/200        1.0     0.0      0.0     0.0     0.0     0.0
   61        62      0.824/100      3.760/100       0.980/200        1.0     0.0      0.0     0.0     0.0     0.0
   63        59      0.000/100      3.860/100         0.0/200      1/0.960     0.0      0.0     0.0     0.0     0.0
   63        64      0.172/100      2.000/100      21.600/200        1.0     0.0      0.0     0.0     0.0     0.0
   64        61      0.000/100      2.680/100         0.0/200      1/0.985     0.0      0.0     0.0     0.0     0.0
   38        65      0.901/100      9.860/100      104.60/200        1.0     0.0      0.0     0.0     0.0     0.0
   64        65      0.269/100     3.020/100      38.000/200        1.0     0.0      0.0     0.0     0.0     0.0
   49        66      1.800/100      9.190/100       2.480/200        1.0     0.0      0.0     0.0     0.0     0.0
   49        66      1.800/100      9.190/100       2.480/200        1.0     0.0      0.0     0.0     0.0     0.0
   62        66      4.820/100     21.800/100       5.780/200        1.0     0.0      0.0     0.0     0.0     0.0
   62        67      2.580/100     11.700/100       3.100/200        1.0     0.0      0.0     0.0     0.0     0.0
   65        66      0.000/100      3.700/100         0.0/200      1/0.935     0.0      0.0     0.0     0.0     0.0
   66        67      2.240/100     10.150/100       2.682/200        1.0     0.0      0.0     0.0     0.0     0.0
   65        68      0.138/100      1.600/100      63.800/200        1.0     0.0      0.0     0.0     0.0     0.0
   47        69      8.440/100     27.780/100       7.092/200        1.0     0.0      0.0     0.0     0.0     0.0
   49        69      9.850/100     32.400/100       8.280/200        1.0     0.0      0.0     0.0     0.0     0.0
   68        69      0.000/100      3.700/100         0.0/200      1/0.935     0.0      0.0     0.0     0.0     0.0
   69        70      3.000/100     12.700/100      12.200/200        1.0     0.0      0.0     0.0     0.0     0.0
   24        70      0.221/100     41.150/100      10.198/200        1.0     0.0      0.0     0.0     0.0     0.0
   70        71      0.882/100      3.550/100       0.878/200        1.0     0.0      0.0     0.0     0.0     0.0
   24        72      4.880/100     19.600/100       4.880/200        1.0     0.0      0.0     0.0     0.0     0.0
   71        72      4.460/100     18.000/100       4.444/200        1.0     0.0      0.0     0.0     0.0     0.0
   71        73      0.866/100      4.540/100       1.178/200        1.0     0.0      0.0     0.0     0.0     0.0
   70        74      4.010/100     13.230/100       3.368/200        1.0     0.0      0.0     0.0     0.0     0.0
   70        75      4.280/100     14.100/100       3.600/200        1.0     0.0      0.0     0.0     0.0     0.0
   69        75      4.050/100     12.200/100      12.400/200        1.0     0.0      0.0     0.0     0.0     0.0
   74        75      1.230/100      4.060/100       1.034/200        1.0     0.0      0.0     0.0     0.0     0.0
   76        77      4.440/100     14.800/100       3.680/200        1.0     0.0      0.0     0.0     0.0     0.0
   69        77      3.090/100     10.100/100      10.380/200        1.0     0.0      0.0     0.0     0.0     0.0
   75        77      6.010/100     19.990/100       4.978/200        1.0     0.0      0.0     0.0     0.0     0.0
   77        78      0.376/100      1.240/100       1.264/200        1.0     0.0      0.0     0.0     0.0     0.0
   78        79      0.546/100      2.440/100       0.648/200        1.0     0.0      0.0     0.0     0.0     0.0
   77        80      1.700/100      4.850/100       4.720/200        1.0     0.0      0.0     0.0     0.0     0.0
   77        80      2.940/100     10.500/100       2.280/200        1.0     0.0      0.0     0.0     0.0     0.0
   79        80      1.560/100      7.040/100       1.870/200        1.0     0.0      0.0     0.0     0.0     0.0
   68        81      0.175/100      2.020/100      80.800/200        1.0     0.0      0.0     0.0     0.0     0.0
   81        80      0.000/100      3.700/100         0.0/200        1/0.935     0.0      0.0     0.0     0.0     0.0
   77        82      2.980/100      8.530/100      8.174/200         1.0     0.0      0.0     0.0     0.0     0.0
   82        83      1.120/100      3.665/100       3.796/200        1.0     0.0      0.0     0.0     0.0     0.0
   83        84      6.250/100     13.200/100       2.580/200        1.0     0.0      0.0     0.0     0.0     0.0
   83        85      4.300/100     14.800/100       3.480/200        1.0     0.0      0.0     0.0     0.0     0.0
   84        85      3.020/100      6.410/100       1.234/200        1.0     0.0      0.0     0.0     0.0     0.0
   85        86      3.500/100     12.300/100       2.760/200        1.0     0.0      0.0     0.0     0.0     0.0
   86        87      2.828/100     20.740/100       4.450/200        1.0     0.0      0.0     0.0     0.0     0.0
   85        88      2.000/100     10.200/100       2.760/200        1.0     0.0      0.0     0.0     0.0     0.0
   85        89      2.390/100     17.300/100       4.700/200        1.0     0.0      0.0     0.0     0.0     0.0
   88        89      1.390/100      7.120/100       1.934/200        1.0     0.0      0.0     0.0     0.0     0.0
   89        90      5.180/100     18.800/100       5.280/200        1.0     0.0      0.0     0.0     0.0     0.0
   89        90      2.380/100      9.970/100      10.600/200        1.0     0.0      0.0     0.0     0.0     0.0
   90        91      2.540/100      8.360/100       2.140/200        1.0     0.0      0.0     0.0     0.0     0.0
   89        92      0.990/100      5.050/100       5.480/200        1.0     0.0      0.0     0.0     0.0     0.0
   89        92      3.930/100     15.810/100       4.140/200        1.0     0.0      0.0     0.0     0.0     0.0
   91        92      3.870/100     12.720/100       3.268/200        1.0     0.0      0.0     0.0     0.0     0.0
   92        93      2.580/100      8.480/100      2.180/200         1.0     0.0      0.0     0.0     0.0     0.0
   92        94      4.810/100     15.800/100       4.060/200        1.0     0.0      0.0     0.0     0.0     0.0
   93        94      2.230/100      7.320/100       1.876/200        1.0     0.0      0.0     0.0     0.0     0.0
   94        95      1.320/100      4.340/100       1.110/200        1.0     0.0      0.0     0.0     0.0     0.0
   80        96      3.560/100     18.200/100       4.940/200        1.0     0.0      0.0     0.0     0.0     0.0
   82        96      1.620/100      5.300/100       5.440/200        1.0     0.0      0.0     0.0     0.0     0.0
   94        96      2.690/100      8.690/100       2.300/200        1.0     0.0      0.0     0.0     0.0     0.0
   80        97      1.830/100      9.340/100       2.540/200        1.0     0.0      0.0     0.0     0.0     0.0
   80        98      2.380/100     10.800/100       2.860/200        1.0     0.0      0.0     0.0     0.0     0.0
   80        99      4.540/100     20.600/100       5.460/200        1.0     0.0      0.0     0.0     0.0     0.0
   92       100      6.480/100     29.500/100       4.720/200        1.0     0.0      0.0     0.0     0.0     0.0
   94       100      1.780/100      5.800/100       6.040/200        1.0     0.0      0.0     0.0     0.0     0.0
   95        96      1.710/100      5.470/100       1.474/200        1.0     0.0      0.0     0.0     0.0     0.0
   96        97      1.730/100     8.850/100        2.400/200        1.0     0.0      0.0     0.0     0.0     0.0
   98       100      3.970/100     17.900/100       4.760/200        1.0     0.0      0.0     0.0     0.0     0.0
   99       100      1.800/100      8.130/100       2.160/200        1.0     0.0      0.0     0.0     0.0     0.0
  100       101      2.770/100     12.620/100       3.280/200        1.0     0.0      0.0     0.0     0.0     0.0
   92       102      1.230/100      5.590/100       1.464/200        1.0     0.0      0.0     0.0     0.0     0.0
  101       102      2.460/100     11.200/100       2.940/200        1.0     0.0      0.0     0.0     0.0     0.0
  100       103      1.600/100      5.250/100       5.360/200        1.0     0.0      0.0     0.0     0.0     0.0
  100       104      4.510/100     20.400/100       5.410/200        1.0     0.0      0.0     0.0     0.0     0.0
  103       104      4.660/100     15.840/100       4.070/200        1.0     0.0      0.0     0.0     0.0     0.0
  103       105      5.350/100     16.250/100       4.080/200        1.0     0.0      0.0     0.0     0.0     0.0
  100       106      6.050/100     22.900/100       6.200/200        1.0     0.0      0.0     0.0     0.0     0.0
  104       105      0.994/100      3.780/100       0.986/200        1.0     0.0      0.0     0.0     0.0     0.0
  105       106      1.400/100      5.470/100       1.434/200        1.0     0.0      0.0     0.0     0.0     0.0
  105       107      5.300/100     18.300/100       4.720/200        1.0     0.0      0.0     0.0     0.0     0.0
  105       108      2.610/100      7.030/100       1.844/200        1.0     0.0      0.0     0.0     0.0     0.0
  106       107      5.300/100     18.300/100       4.720/200        1.0     0.0      0.0     0.0     0.0     0.0
  108       109      1.050/100      2.880/100       0.760/200        1.0     0.0      0.0     0.0     0.0     0.0
  103       110      3.906/100     18.130/100       4.610/200        1.0     0.0      0.0     0.0     0.0     0.0
  109       110      2.780/100      7.620/100       2.020/200        1.0     0.0      0.0     0.0     0.0     0.0
  110       111      2.200/100      7.550/100       2.000/200        1.0     0.0      0.0     0.0     0.0     0.0
  110       112      2.470/100      6.400/100       6.200/200        1.0     0.0      0.0     0.0     0.0     0.0
   17       113      0.913/100      3.010/100       0.768/200        1.0     0.0      0.0     0.0     0.0     0.0
   32       113      6.150/100     20.300/100       5.180/200        1.0     0.0      0.0     0.0     0.0     0.0
   32       114      1.350/100      6.120/100       1.628/200        1.0     0.0      0.0     0.0     0.0     0.0
   27       115      1.640/100      7.410/100       1.972/200        1.0     0.0      0.0     0.0     0.0     0.0
  114       115      0.230/100      1.040/100       0.276/200        1.0     0.0      0.0     0.0     0.0     0.0
   68       116      0.034/100      0.405/100      16.400/200        1.0     0.0      0.0     0.0     0.0     0.0
   12       117      3.290/100     14.000/100       3.580/200        1.0     0.0      0.0     0.0     0.0     0.0
   75       118      1.450/100      4.810/100       1.198/200        1.0     0.0      0.0     0.0     0.0     0.0
   76       118      1.640/100      5.440/100       1.356/200        1.0     0.0      0.0     0.0     0.0     0.0
                                                                                  ];